module/resilience/autotest/test_IEEE123_link_outages.glm
// test_IEEE123_link_outages.glm
#set relax_naming_rules=TRUE
#set suppress_repeat_messages=FALSE
#set pythonpath=..
module test_IEEE123_link_outages;
clock
{
	timezone "PST+8PDT";
	starttime "2020-01-01 00:00:00 PST";
}
module reliability
{
	report_event_log "false";
}
module powerflow
{
	solver_method "NR";
}
object fault_check
{
	name "base_fault_check_object";
	check_mode "ONCHANGE";
	strictly_radial "false";
	grid_association "false";
	output_filename "test_IEEE123_link_outages.txt";
	reliability_mode "TRUE";
}

// Phase Conductor for 1 thru 8: 336,400 26/7 ACSR
object overhead_line_conductor:10001
{
	geometric_mean_radius "0.0244";
	resistance "0.30600";
}

// Phase Conductor for 9 thru 11: 1/0 ACSR
object overhead_line_conductor:10009
{
	geometric_mean_radius "0.004460";
	resistance "1.12000";
}	
// Phase Conductor for neutral: 4/0 6/1 ACSR
object overhead_line_conductor:10002
{
	geometric_mean_radius "0.008140";
	resistance "0.59200";
}

// Phase Conductor for 12: 1/0 AA,TS
object underground_line_conductor:10003
{
	outer_diameter "1.060000";
	conductor_gmr "0.011100";
	conductor_diameter "0.368000";
	conductor_resistance "0.970000";
	neutral_gmr "0.011100";
	neutral_resistance "0.970000";
	neutral_diameter "0.0640837";
	neutral_strands "6.000000";
	shield_gmr "0.000000";
	shield_resistance "0.000000";
}

// Overhead line configurations
// ABCN
object line_spacing:5001
{
	distance_AB "2.5";
	distance_AC "7.0";
	distance_BC "4.5";
	distance_AN "5.656854";
	distance_BN "4.272002";
	distance_CN "5.0";
}

// CABN
object line_spacing:5002
{
	distance_AB "4.5";
	distance_AC "2.5";
	distance_BC "7.0";
	distance_AN "5.0";
	distance_BN "4.272002";
	distance_CN "5.656854";
}

// BCAN
object line_spacing:5003
{
	distance_AB "7.0";
	distance_AC "4.5";
	distance_BC "2.5";
	distance_AN "5.0";
	distance_BN "5.656854";
	distance_CN "4.272002";
}

// CBAN
object line_spacing:5004
{
	distance_AB "4.5";
	distance_AC "7.0";
	distance_BC "2.5";
	distance_AN "5.0";
	distance_BN "4.272002";
	distance_CN "5.656854";
}

// BACN
object line_spacing:5005
{
	distance_AB "2.5";
	distance_AC "4.5";
	distance_BC "7.0";
	distance_BN "5.656854";
	distance_AN "4.272002";
	distance_CN "5.0";
}

// ACBN
object line_spacing:5006
{
	distance_AB "7.0";
	distance_AC "2.5";
	distance_BC "4.5";
	distance_AN "5.656854";
	distance_CN "4.272002";
	distance_BN "5.0";
}

//ACN
object line_spacing:5007
{
	distance_AB "0.0";
	distance_AC "7.0";
	distance_BC "0.0";
	distance_AN "5.656854";
	distance_BN "0.0";
	distance_CN "5.0";
}

//ABN
object line_spacing:5008
{
	distance_AB "7.0";
	distance_AC "0.0";
	distance_BC "0.0";
	distance_AN "5.656854";
	distance_BN "5.0";
	distance_CN "0.0";
}

//AN
object line_spacing:5009
{
	distance_AB "0.0";
	distance_AC "0.0";
	distance_BC "0.0";
	distance_AN "5.0";
	distance_BN "0.0";
	distance_CN "0.0";
}

//BN
object line_spacing:50010
{
	distance_AB "0.0";
	distance_AC "0.0";
	distance_BC "0.0";
	distance_AN "0.0";
	distance_BN "5.0";
	distance_CN "0.0";
}

//CN
object line_spacing:50011
{
	distance_AB "0.0";
	distance_AC "0.0";
	distance_BC "0.0";
	distance_AN "0.0";
	distance_BN "0.0";
	distance_CN "5.0";
}

//ABC
object line_spacing:50012
{
	distance_AB "0.5";
	distance_AC "1.0";
	distance_BC "0.5";
	distance_AN "0.0";
	distance_BN "0.0";
	distance_CN "0.0";
}
object line_configuration:1001
{
	conductor_A "overhead_line_conductor:10001";
	conductor_B "overhead_line_conductor:10001";
	conductor_C "overhead_line_conductor:10001";
	conductor_N "overhead_line_conductor:10002";
	spacing "line_spacing:5001";
}
object line_configuration:1002
{
	conductor_A "overhead_line_conductor:10001";
	conductor_B "overhead_line_conductor:10001";
	conductor_C "overhead_line_conductor:10001";
	conductor_N "overhead_line_conductor:10002";
	spacing "line_spacing:5002";
}
object line_configuration:1003
{
	conductor_A "overhead_line_conductor:10001";
	conductor_B "overhead_line_conductor:10001";
	conductor_C "overhead_line_conductor:10001";
	conductor_N "overhead_line_conductor:10002";
	spacing "line_spacing:5003";
}
object line_configuration:1004
{
	conductor_A "overhead_line_conductor:10001";
	conductor_B "overhead_line_conductor:10001";
	conductor_C "overhead_line_conductor:10001";
	conductor_N "overhead_line_conductor:10002";
	spacing "line_spacing:5004";
}
object line_configuration:1005
{
	conductor_A "overhead_line_conductor:10001";
	conductor_B "overhead_line_conductor:10001";
	conductor_C "overhead_line_conductor:10001";
	conductor_N "overhead_line_conductor:10002";
	spacing "line_spacing:5005";
}
object line_configuration:1006
{
	conductor_A "overhead_line_conductor:10001";
	conductor_B "overhead_line_conductor:10001";
	conductor_C "overhead_line_conductor:10001";
	conductor_N "overhead_line_conductor:10002";
	spacing "line_spacing:5006";
}
object line_configuration:1007
{
	conductor_A "overhead_line_conductor:10001";
	conductor_C "overhead_line_conductor:10001";
	conductor_N "overhead_line_conductor:10002";
	spacing "line_spacing:5007";
}
object line_configuration:1008
{
	conductor_A "overhead_line_conductor:10001";
	conductor_B "overhead_line_conductor:10001";
	conductor_N "overhead_line_conductor:10002";
	spacing "line_spacing:5008";
}
object line_configuration:1009
{
	conductor_A "overhead_line_conductor:10009";
	conductor_N "overhead_line_conductor:10009";
	spacing "line_spacing:5009";
}
object line_configuration:10010
{
	conductor_B "overhead_line_conductor:10009";
	conductor_N "overhead_line_conductor:10009";
	spacing "line_spacing:50010";
}
object line_configuration:10011
{
	conductor_C "overhead_line_conductor:10009";
	conductor_N "overhead_line_conductor:10009";
	spacing "line_spacing:50011";
}
object line_configuration:10012
{
	 conductor_A "underground_line_conductor:10003";
	 conductor_B "underground_line_conductor:10003";
	 conductor_C "underground_line_conductor:10003";
	 spacing "line_spacing:50012";
}

//Define line objects
object overhead_line:
{
	phases "BN";
	name "oh_1-2";
	from "load:1";
	to "load:2";
	length "175";
	configuration "line_configuration:10010";
}
object overhead_line:
{
	phases "CN";
	name "oh_1-3";
	from "load:1";
	to "node:3";
	length "250";
	configuration "line_configuration:10011";
}
object overhead_line:
{
	phases "ABCN";
	name "oh_1-7";
	from "load:1";
	to "load:7";
	length "300";
	configuration "line_configuration:1001";
}
object overhead_line:
{
	phases "CN";
	name "oh_3-4";
	from "node:3";
	to "load:4";
	length "200";
	configuration "line_configuration:10011";
}
object overhead_line:
{
	phases "CN";
	name "oh_3-5";
	from "node:3";
	to "load:5";
	length "325";
	configuration "line_configuration:10011";
}
object overhead_line:
{
	phases "CN";
	name "oh_5-6";
	from "load:5";
	to "load:6";
	length "250";
	configuration "line_configuration:10011";
}
object overhead_line:
{
	phases "ABCN";
	name "oh_7-8";
	from "load:7";
	to "node:8";
	length "200";
	configuration "line_configuration:1001";
}
object overhead_line:
{
	phases "BN";
	name "oh_8-12";
	from "node:8";
	to "load:12";
	length "225";
	configuration "line_configuration:10010";
}
object overhead_line:
{
	phases "AN";
	name "oh_8-9";
	from "node:8";
	to "load:9";
	length "225";
	configuration "line_configuration:1009";
}
object overhead_line:
{
	phases "ABCN";
	name "oh_8-13";
	from "node:8";
	to "node:13";
	length "300";
	configuration "line_configuration:1001";
}
object overhead_line:
{
	phases "AN";
	name "oh_1401-14";
	from "node:1401";
	to "node:14";
	length "425";
	configuration "line_configuration:1009";
}
object overhead_line:
{
	phases "CN";
	name "oh_13-34";
	from "node:13";
	to "load:34";
	length "150";
	configuration "line_configuration:10011";
}
object overhead_line:
{
	phases "ABCN";
	name "oh_13-18";
	from "node:13";
	to "node:18";
	length "825";
	configuration "line_configuration:1002";
}
object overhead_line:
{
	phases "AN";
	name "oh_14-11";
	from "node:14";
	to "load:11";
	length "250";
	configuration "line_configuration:1009";
}
object overhead_line:
{
	phases "AN";
	name "oh_14-10";
	from "node:14";
	to "load:10";
	length "250";
	configuration "line_configuration:1009";
}
object overhead_line:
{
	phases "CN";
	name "oh_15-16";
	from "node:15";
	to "load:16";
	length "375";
	configuration "line_configuration:10011";
}
object overhead_line:
{
	phases "CN";
	name "oh_15-17";
	from "node:15";
	to "load:17";
	length "350";
	configuration "line_configuration:10011";
}
object overhead_line:
{
	phases "AN";
	name "oh_18-19";
	from "node:18";
	to "load:19";
	length "250";
	configuration "line_configuration:1009";
}
object overhead_line:
{
	phases "ABCN";
	name "oh_18-21";
	from "node:18";
	to "node:21";
	length "300";
	configuration "line_configuration:1002";
}
object overhead_line:
{
	phases "AN";
	name "oh_19-20";
	from "load:19";
	to "load:20";
	length "325";
	configuration "line_configuration:1009";
}
object overhead_line:
{
	phases "BN";
	name "oh_21-22";
	from "node:21";
	to "load:22";
	length "525";
	configuration "line_configuration:10010";
}
object overhead_line:
{
	phases "ABCN";
	name "oh_21-23";
	from "node:21";
	to "node:23";
	length "250";
	configuration "line_configuration:1002";
}
object overhead_line:
{
	phases "CN";
	name "oh_23-24";
	from "node:23";
	to "load:24";
	length "550";
	configuration "line_configuration:10011";
}
object overhead_line:
{
	phases "ABCN";
	name "oh_23-25";
	from "node:23";
	to "node:25";
	length "275";
	configuration "line_configuration:1002";
}
object overhead_line:
{
	phases "ACN";
	name "oh_2601-26";
	from "node:2601";
	to "node:26";
	length "350";
	configuration "line_configuration:1007";
}
object overhead_line:
{
	phases "ABCN";
	name "oh_25-28";
	from "node:25";
	to "load:28";
	length "200";
	configuration "line_configuration:1002";
}
object overhead_line:
{
	phases "ACN";
	name "oh_26-27";
	from "node:26";
	to "node:27";
	length "275";
	configuration "line_configuration:1007";
}
object overhead_line:
{
	phases "CN";
	name "oh_26-31";
	from "node:26";
	to "load:31";
	length "225";
	configuration "line_configuration:10011";
}
object overhead_line:
{
	phases "AN";
	name "oh_27-33";
	from "node:27";
	to "load:33";
	length "500";
	configuration "line_configuration:1009";
}
object overhead_line:
{
	phases "ABCN";
	name "oh_28-29";
	from "load:28";
	to "load:29";
	length "300";
	configuration "line_configuration:1002";
}
object overhead_line:
{
	phases "ABCN";
	name "oh_29-30";
	from "load:29";
	to "load:30";
	length "350";
	configuration "line_configuration:1002";
}
object overhead_line:
{
	phases "ABCN";
	name "oh_30-250";
	from "load:30";
	to "node:250";
	length "200";
	configuration "line_configuration:1002";
}
object overhead_line:
{
	phases "CN";
	name "oh_31-32";
	from "load:31";
	to "load:32";
	length "300";
	configuration "line_configuration:10011";
}
object overhead_line:
{
	phases "CN";
	name "oh_34-15";
	from "load:34";
	to "node:15";
	length "100";
	configuration "line_configuration:10011";
}
object overhead_line:
{
	phases "ABN";
	name "oh_35-36";
	from "load:35";
	to "node:36";
	length "650";
	configuration "line_configuration:1008";
}
object overhead_line:
{
	phases "ABCN";
	name "oh_35-40";
	from "load:35";
	to "node:40";
	length "250";
	configuration "line_configuration:1001";
}
object overhead_line:
{
	phases "AN";
	name "oh_36-37";
	from "node:36";
	to "load:37";
	length "300";
	configuration "line_configuration:1009";
}
object overhead_line:
{
	phases "BN";
	name "oh_36-38";
	from "node:36";
	to "load:38";
	length "250";
	configuration "line_configuration:10010";
}
object overhead_line:
{
	phases "BN";
	name "oh_38-39";
	from "load:38";
	to "load:39";
	length "325";
	configuration "line_configuration:10010";
}
object overhead_line:
{
	phases "CN";
	name "oh_40-41";
	from "node:40";
	to "load:41";
	length "325";
	configuration "line_configuration:10011";
}
object overhead_line:
{
	phases "ABCN";
	name "oh_40-42";
	from "node:40";
	to "load:42";
	length "250";
	configuration "line_configuration:1001";
}
object overhead_line:
{
	phases "BN";
	name "oh_42-43";
	from "load:42";
	to "load:43";
	length "500";
	configuration "line_configuration:10010";
}
object overhead_line:
{
	phases "ABCN";
	name "oh_42-44";
	from "load:42";
	to "node:44";
	length "200";
	configuration "line_configuration:1001";
}
object overhead_line:
{
	phases "AN";
	name "oh_44-45";
	from "node:44";
	to "load:45";
	length "200";
	configuration "line_configuration:1009";
}
object overhead_line:
{
	phases "ABCN";
	name "oh_44-47";
	from "node:44";
	to "load:47";
	length "250";
	configuration "line_configuration:1001";
}
object overhead_line:
{
	phases "AN";
	name "oh_45-46";
	from "load:45";
	to "load:46";
	length "300";
	configuration "line_configuration:1009";
}
object overhead_line:
{
	phases "ABCN";
	name "oh_47-48";
	from "load:47";
	to "load:48";
	length "150";
	configuration "line_configuration:1004";
}
object overhead_line:
{
	phases "ABCN";
	name "oh_47-49";
	from "load:47";
	to "load:49";
	length "250";
	configuration "line_configuration:1004";
}
object overhead_line:
{
	phases "ABCN";
	name "oh_49-50";
	from "load:49";
	to "load:50";
	length "250";
	configuration "line_configuration:1004";
}
object overhead_line:
{
	phases "ABCN";
	name "oh_50-51";
	from "load:50";
	to "load:51";
	length "250";
	configuration "line_configuration:1004";
}
object overhead_line:
{
	phases "ABCN";			//undefined line segment
	name "oh_51-151";
	from "load:51";
	to "node:151";
	length "700";
	configuration "line_configuration:1004";
}
object overhead_line:
{
	phases "ABCN";
	name "oh_52-53";
	from "load:52";
	to "load:53";
	length "200";
	configuration "line_configuration:1001";
}
object overhead_line:
{
	phases "ABCN";
	name "oh_53-54";
	from "load:53";
	to "node:54";
	length "125";
	configuration "line_configuration:1001";
}
object overhead_line:
{
	phases "ABCN";
	name "oh_54-55";
	from "node:54";
	to "load:55";
	length "275";
	configuration "line_configuration:1001";
}
object overhead_line:
{
	phases "ABCN";
	name "oh_54-57";
	from "node:54";
	to "node:57";
	length "350";
	configuration "line_configuration:1003";
}
object overhead_line:
{
	phases "ABCN";
	name "oh_55-56";
	from "load:55";
	to "load:56";
	length "275";
	configuration "line_configuration:1001";
}
object overhead_line:
{
	phases "BN";
	name "oh_57-58";
	from "node:57";
	to "load:58";
	length "250";
	configuration "line_configuration:10010";
}
object overhead_line:
{
	phases "ABCN";
	name "oh_57-60";
	from "node:57";
	to "load:60";
	length "750";
	configuration "line_configuration:1003";
}
object overhead_line:
{
	phases "BN";
	name "oh_58-59";
	from "load:58";
	to "load:59";
	length "250";
	configuration "line_configuration:10010";
}
object overhead_line:
{
	phases "ABCN";
	name "oh_60-61";
	from "load:60";
	to "node:61";
	length "550";
	configuration "line_configuration:1005";
}
object underground_line:
{
	phases "ABC";
	name "oh_60-62";
	from "load:60";
	to "load:62";
	length "250";
	configuration "line_configuration:10012";
}
object underground_line:
{
	phases "ABC";
	name "oh_62-63";
	from "load:62";
	to "load:63";
	length "175";
	configuration "line_configuration:10012";
}
object underground_line:
{
	phases "ABC";
	name "oh_63-64";
	from "load:63";
	to "load:64";
	length "350";
	configuration "line_configuration:10012";
}
object underground_line:
{
	phases "ABC";
	name "oh_64-65";
	from "load:64";
	to "load:65";
	length "425";
	configuration "line_configuration:10012";
}
object underground_line:
{
	phases "ABC";
	name "oh_65-66";
	from "load:65";
	to "load:66";
	length "325";
	configuration "line_configuration:10012";
}
object overhead_line:
{
	phases "AN";
	name "oh_67-68";
	from "node:67";
	to "load:68";
	length "200";
	configuration "line_configuration:1009";
}
object overhead_line:
{
	phases "ABCN";
	name "oh_67-72";
	from "node:67";
	to "node:72";
	length "275";
	configuration "line_configuration:1003";
}
object overhead_line:
{
	phases "ABCN";
	name "oh_67-97";
	from "node:67";
	to "node:97";
	length "250";
	configuration "line_configuration:1003";
}
object overhead_line:
{
	phases "AN";
	name "oh_68-69";
	from "load:68";
	to "load:69";
	length "275";
	configuration "line_configuration:1009";
}
object overhead_line:
{
	phases "AN";
	name "oh_69-70";
	from "load:69";
	to "load:70";
	length "325";
	configuration "line_configuration:1009";
}
object overhead_line:
{
	phases "AN";
	name "oh_70-71";
	from "load:70";
	to "load:71";
	length "275";
	configuration "line_configuration:1009";
}
object overhead_line:
{
	phases "CN";
	name "oh_72-73";
	from "node:72";
	to "load:73";
	length "275";
	configuration "line_configuration:10011";
}
object overhead_line:
{
	phases "ABCN";
	name "oh_72-76";
	from "node:72";
	to "load:76";
	length "200";
	configuration "line_configuration:1003";
}
object overhead_line:
{
	phases "CN";
	name "oh_73-74";
	from "load:73";
	to "load:74";
	length "350";
	configuration "line_configuration:10011";
}
object overhead_line:
{
	phases "CN";
	name "oh_74-75";
	from "load:74";
	to "load:75";
	length "400";
	configuration "line_configuration:10011";
}
object overhead_line:
{
	phases "ABCN";
	name "oh_76-77";
	from "load:76";
	to "load:77";
	length "400";
	configuration "line_configuration:1006";
}
object overhead_line:
{
	phases "ABCN";
	name "oh_76-86";
	from "load:76";
	to "load:86";
	length "700";
	configuration "line_configuration:1003";
}
object overhead_line:
{
	phases "ABCN";
	name "oh_77-78";
	from "load:77";
	to "node:78";
	length "100";
	configuration "line_configuration:1006";
}
object overhead_line:
{
	phases "ABCN";
	name "oh_78-79";
	from "node:78";
	to "load:79";
	length "225";
	configuration "line_configuration:1006";
}
object overhead_line:
{
	phases "ABCN";
	name "oh_78-80";
	from "node:78";
	to "load:80";
	length "475";
	configuration "line_configuration:1006";
}
object overhead_line:
{
	phases "ABCN";
	name "oh_80-81";
	from "load:80";
	to "node:81";
	length "475";
	configuration "line_configuration:1006";
}
object overhead_line:
{
	phases "ABCN";
	name "oh_81-82";
	from "node:81";
	to "load:82";
	length "250";
	configuration "line_configuration:1006";
}
object overhead_line:
{
	phases "CN";
	name "oh_81-84";
	from "node:81";
	to "load:84";
	length "675";
	configuration "line_configuration:10011";
}
object overhead_line:
{
	phases "ABCN";
	name "oh_82-83";
	from "load:82";
	to "load:83";
	length "250";
	configuration "line_configuration:1006";
}
object overhead_line:
{
	phases "CN";
	name "oh_84-85";
	from "load:84";
	to "load:85";
	length "475";
	configuration "line_configuration:10011";
}
object overhead_line:
{
	phases "ABCN";
	name "oh_86-87";
	from "load:86";
	to "load:87";
	length "450";
	configuration "line_configuration:1006";
}
object overhead_line:
{
	phases "AN";
	name "oh_87-88";
	from "load:87";
	to "load:88";
	length "175";
	configuration "line_configuration:1009";
}
object overhead_line:
{
	phases "ABCN";
	name "oh_87-89";
	from "load:87";
	to "node:89";
	length "275";
	configuration "line_configuration:1006";
}
object overhead_line:
{
	phases "BN";
	name "oh_89-90";
	from "node:89";
	to "load:90";
	length "225";
	configuration "line_configuration:10010";
}
object overhead_line:
{
	phases "ABCN";
	name "oh_89-91";
	from "node:89";
	to "node:91";
	length "225";
	configuration "line_configuration:1006";
}
object overhead_line:
{
	phases "CN";
	name "oh_91-92";
	from "node:91";
	to "load:92";
	length "300";
	configuration "line_configuration:10011";
}
object overhead_line:
{
	phases "ABCN";
	name "oh_91-93";
	from "node:91";
	to "node:93";
	length "225";
	configuration "line_configuration:1006";
}
object overhead_line:
{
	phases "AN";
	name "oh_93-94";
	from "node:93";
	to "load:94";
	length "275";
	configuration "line_configuration:1009";
}
object overhead_line:
{
	phases "ABCN";
	name "oh_93-95";
	from "node:93";
	to "load:95";
	length "300";
	configuration "line_configuration:1006";
}
object overhead_line:
{
	phases "BN";
	name "oh_95-96";
	from "load:95";
	to "load:96";
	length "200";
	configuration "line_configuration:10010";
}
object overhead_line:
{
	phases "ABCN";
	name "oh_97-98";
	from "node:97";
	to "load:98";
	length "275";
	configuration "line_configuration:1003";
}
object overhead_line:
{
	phases "ABCN";
	name "oh_98-99";
	from "load:98";
	to "load:99";
	length "550";
	configuration "line_configuration:1003";
}
object overhead_line:
{
	phases "ABCN";
	name "oh_99-100";
	from "load:99";
	to "load:100";
	length "300";
	configuration "line_configuration:1003";
}
object overhead_line:
{
	phases "ABCN";
	name "oh_100-450";
	from "load:100";
	to "node:450";
	length "800";
	configuration "line_configuration:1003";
}
object overhead_line:
{
	phases "CN";
	name "oh_101-102";
	from "node:101";
	to "load:102";
	length "225";
	configuration "line_configuration:10011";
}
object overhead_line:
{
	phases "ABCN";
	name "oh_101-105";
	from "node:101";
	to "node:105";
	length "275";
	configuration "line_configuration:1003";
}
object overhead_line:
{
	phases "CN";
	name "oh_102-103";
	from "load:102";
	to "load:103";
	length "325";
	configuration "line_configuration:10011";
}
object overhead_line:
{
	phases "CN";
	name "oh_103-104";
	from "load:103";
	to "load:104";
	length "700";
	configuration "line_configuration:10011";
}
object overhead_line:
{
	phases "BN";
	name "oh_105-106";
	from "node:105";
	to "load:106";
	length "225";
	configuration "line_configuration:10010";
}
object overhead_line:
{
	phases "ABCN";
	name "oh_105-108";
	from "node:105";
	to "node:108";
	length "325";
	configuration "line_configuration:1003";
}
object overhead_line:
{
	phases "BN";
	name "oh_106-107";
	from "load:106";
	to "load:107";
	length "575";
	configuration "line_configuration:10010";
}
object overhead_line:
{
	phases "AN";
	name "oh_108-109";
	from "node:108";
	to "load:109";
	length "450";
	configuration "line_configuration:1009";
}
object overhead_line:
{
	phases "ABCN";
	name "oh_108-300";
	from "node:108";
	to "node:300";
	length "1000";
	configuration "line_configuration:1003";
}
object overhead_line:
{
	phases "AN";
	name "oh_109-110";
	from "load:109";
	to "node:110";
	length "300";
	configuration "line_configuration:1009";
}
object overhead_line:
{
	phases "AN";
	name "oh_110-111";
	from "node:110";
	to "load:111";
	length "575";
	configuration "line_configuration:1009";
}
object overhead_line:
{
	phases "AN";
	name "oh_110-112";
	from "node:110";
	to "load:112";
	length "125";
	configuration "line_configuration:1009";
}
object overhead_line:
{
	phases "AN";
	name "oh_112-113";
	from "load:112";
	to "load:113";
	length "525";
	configuration "line_configuration:1009";
}
object overhead_line:
{
	phases "AN";
	name "oh_113-114";
	from "load:113";
	to "load:114";
	length "325";
	configuration "line_configuration:1009";
}
object overhead_line:
{
	phases "ABCN";
	name "oh_135-35";
	from "node:135";
	to "load:35";
	length "375";
	configuration "line_configuration:1004";
}
object overhead_line:
{
	phases "ABCN";
	name "oh_149-1";
	from "node:149";
	to "load:1";
	length "400";
	configuration "line_configuration:1001";
}
object overhead_line:
{
	phases "ABCN";
	name "oh_152-52";
	from "node:152";
	to "load:52";
	length "400";
	configuration "line_configuration:1001";
}
object overhead_line:
{
	phases "ABCN";
	name "oh_6701-67";
	from "node:6701";
	to "node:67";
	length "350";
	configuration "line_configuration:1006";
}
object overhead_line:
{
	phases "ABCN";
	name "oh_197-101";
	from "node:197";
	to "node:101";
	length "250";
	configuration "line_configuration:1003";
}

//Create node only objects
object node:3
{
	phases "CN";
	name "oh_3";
	voltage_A "2401.7771";
	voltage_B "-1200.8886-2080.000j";
	voltage_C "-1200.8886+2080.000j";
	nominal_voltage "2401.7771";
}
object node:8
{
	phases "ABCN";
	name "oh_8";
	voltage_A "2401.7771";
	voltage_B "-1200.8886-2080.000j";
	voltage_C "-1200.8886+2080.000j";
	nominal_voltage "2401.7771";
}
object node:13
{
	phases "ABCN";
	name "oh_13";
	voltage_A "2401.7771";
	voltage_B "-1200.8886-2080.000j";
	voltage_C "-1200.8886+2080.000j";
	nominal_voltage "2401.7771";
}
object node:14
{
	phases "AN";
	name "oh_14";
	voltage_A "2401.7771";
	voltage_B "-1200.8886-2080.000j";
	voltage_C "-1200.8886+2080.000j";
	nominal_voltage "2401.7771";
}
object node:1401
{
	phases "AN";
	name "oh_1401";
	voltage_A "2401.7771";
	voltage_B "-1200.8886-2080.000j";
	voltage_C "-1200.8886+2080.000j";
	nominal_voltage "2401.7771";
}
object node:15
{
	phases "CN";
	name "oh_15";
	voltage_A "2401.7771";
	voltage_B "-1200.8886-2080.000j";
	voltage_C "-1200.8886+2080.000j";
	nominal_voltage "2401.7771";
}
object node:18
{
	phases "ABCN";
	name "oh_18";
	voltage_A "2401.7771";
	voltage_B "-1200.8886-2080.000j";
	voltage_C "-1200.8886+2080.000j";
	nominal_voltage "2401.7771";
}
object node:21
{
	phases "ABCN";
	name "oh_21";
	voltage_A "2401.7771";
	voltage_B "-1200.8886-2080.000j";
	voltage_C "-1200.8886+2080.000j";
	nominal_voltage "2401.7771";
}
object node:23
{
	phases "ABCN";
	name "oh_23";
	voltage_A "2401.7771";
	voltage_B "-1200.8886-2080.000j";
	voltage_C "-1200.8886+2080.000j";
	nominal_voltage "2401.7771";
}
object node:25
{
	phases "ABCN";
	name "oh_25";
	voltage_A "2401.7771";
	voltage_B "-1200.8886-2080.000j";
	voltage_C "-1200.8886+2080.000j";
	nominal_voltage "2401.7771";
}
object node:26
{
	phases "ACN";
	name "oh_26";
	voltage_A "2401.7771";
	voltage_B "-1200.8886-2080.000j";
	voltage_C "-1200.8886+2080.000j";
	nominal_voltage "2401.7771";
}
object node:2601
{
	phases "ACN";
	name "oh_2601";
	voltage_A "2401.7771";
	voltage_B "-1200.8886-2080.000j";
	voltage_C "-1200.8886+2080.000j";
	nominal_voltage "2401.7771";
}
object node:27
{
	phases "ACN";
	name "oh_27";
	voltage_A "2401.7771";
	voltage_B "-1200.8886-2080.000j";
	voltage_C "-1200.8886+2080.000j";
	nominal_voltage "2401.7771";
}
object node:36
{
	phases "ABN";
	name "oh_36";
	voltage_A "2401.7771";
	voltage_B "-1200.8886-2080.000j";
	voltage_C "-1200.8886+2080.000j";
	nominal_voltage "2401.7771";
}
object node:40
{
	phases "ABCN";
	name "oh_40";
	voltage_A "2401.7771";
	voltage_B "-1200.8886-2080.000j";
	voltage_C "-1200.8886+2080.000j";
	nominal_voltage "2401.7771";
}
object node:44
{
	phases "ABCN";
	name "oh_44";
	voltage_A "2401.7771";
	voltage_B "-1200.8886-2080.000j";
	voltage_C "-1200.8886+2080.000j";
	nominal_voltage "2401.7771";
}
object node:54
{
	phases "ABCN";
	name "oh_54";
	voltage_A "2401.7771";
	voltage_B "-1200.8886-2080.000j";
	voltage_C "-1200.8886+2080.000j";
	nominal_voltage "2401.7771";
}
object node:57
{
	phases "ABCN";
	name "oh_57";
	voltage_A "2401.7771";
	voltage_B "-1200.8886-2080.000j";
	voltage_C "-1200.8886+2080.000j";
	nominal_voltage "2401.7771";
}
object node:61
{
	phases "ABCN";
	name "oh_61";
	voltage_A "2401.7771";
	voltage_B "-1200.8886-2080.000j";
	voltage_C "-1200.8886+2080.000j";
	nominal_voltage "2401.7771";
}
object node:67
{
	phases "ABCN";
	name "oh_67";
	voltage_A "2401.7771";
	voltage_B "-1200.8886-2080.000j";
	voltage_C "-1200.8886+2080.000j";
	nominal_voltage "2401.7771";
}
object node:6701
{
	phases "ABCN";
	name "oh_6701";
	voltage_A "2401.7771";
	voltage_B "-1200.8886-2080.000j";
	voltage_C "-1200.8886+2080.000j";
	nominal_voltage "2401.7771";
}
object node:72
{
	phases "ABCN";
	name "oh_72";
	voltage_A "2401.7771";
	voltage_B "-1200.8886-2080.000j";
	voltage_C "-1200.8886+2080.000j";
	nominal_voltage "2401.7771";
}
object node:78
{
	phases "ABCN";
	name "oh_78";
	voltage_A "2401.7771";
	voltage_B "-1200.8886-2080.000j";
	voltage_C "-1200.8886+2080.000j";
	nominal_voltage "2401.7771";
}
object node:81
{
	phases "ABCN";
	name "oh_81";
	voltage_A "2401.7771";
	voltage_B "-1200.8886-2080.000j";
	voltage_C "-1200.8886+2080.000j";
	nominal_voltage "2401.7771";
}
object node:89
{
	phases "ABCN";
	name "oh_89";
	voltage_A "2401.7771";
	voltage_B "-1200.8886-2080.000j";
	voltage_C "-1200.8886+2080.000j";
	nominal_voltage "2401.7771";
}
object node:91
{
	phases "ABCN";
	name "oh_91";
	voltage_A "2401.7771";
	voltage_B "-1200.8886-2080.000j";
	voltage_C "-1200.8886+2080.000j";
	nominal_voltage "2401.7771";
}
object node:93
{
	phases "ABCN";
	name "oh_93";
	voltage_A "2401.7771";
	voltage_B "-1200.8886-2080.000j";
	voltage_C "-1200.8886+2080.000j";
	nominal_voltage "2401.7771";
}
object node:97
{
	phases "ABCN";
	name "oh_97";
	voltage_A "2401.7771";
	voltage_B "-1200.8886-2080.000j";
	voltage_C "-1200.8886+2080.000j";
	nominal_voltage "2401.7771";
}
object node:101
{
	phases "ABCN";
	name "oh_101";
	voltage_A "2401.7771";
	voltage_B "-1200.8886-2080.000j";
	voltage_C "-1200.8886+2080.000j";
	nominal_voltage "2401.7771";
}
object node:105
{
	phases "ABCN";
	name "oh_105";
	voltage_A "2401.7771";
	voltage_B "-1200.8886-2080.000j";
	voltage_C "-1200.8886+2080.000j";
	nominal_voltage "2401.7771";
}
object node:108
{
	phases "ABCN";
	name "oh_108";
	voltage_A "2401.7771";
	voltage_B "-1200.8886-2080.000j";
	voltage_C "-1200.8886+2080.000j";
	nominal_voltage "2401.7771";
}
object node:110
{
	phases "AN";
	name "oh_110";
	voltage_A "2401.7771";
	voltage_B "-1200.8886-2080.000j";
	voltage_C "-1200.8886+2080.000j";
	nominal_voltage "2401.7771";
}
object node:135
{
	phases "ABCN";
	name "oh_135";
	voltage_A "2401.7771";
	voltage_B "-1200.8886-2080.000j";
	voltage_C "-1200.8886+2080.000j";
	nominal_voltage "2401.7771";
}
object node:149
{
	phases "ABCN";
	name "oh_149";
	voltage_A "2401.7771";
	voltage_B "-1200.8886-2080.000j";
	voltage_C "-1200.8886+2080.000j";
	nominal_voltage "2401.7771";
}
object node:1491
{
	phases "ABCN";
	name "oh_1491";
	voltage_A "2401.7771";
	voltage_B "-1200.8886-2080.000j";
	voltage_C "-1200.8886+2080.000j";
	nominal_voltage "2401.7771";
}
object node:150
{
	phases "ABCN";
	name "oh_150";
	bustype "SWING";
	voltage_A "2401.7771";
	voltage_B "-1200.8886-2080.000j";
	voltage_C "-1200.8886+2080.000j";
	nominal_voltage "2401.7771";
}
object node:151
{
	phases "ABCN";
	name "oh_151";
	voltage_A "2401.7771";
	voltage_B "-1200.8886-2080.000j";
	voltage_C "-1200.8886+2080.000j";
	nominal_voltage "2401.7771";
}
object node:152
{
	phases "ABCN";
	name "oh_152";
	voltage_A "2401.7771";
	voltage_B "-1200.8886-2080.000j";
	voltage_C "-1200.8886+2080.000j";
	nominal_voltage "2401.7771";
}
object node:160
{
	phases "ABCN";
	name "oh_160";
	voltage_A "2401.7771";
	voltage_B "-1200.8886-2080.000j";
	voltage_C "-1200.8886+2080.000j";
	nominal_voltage "2401.7771";
}
object node:195
{
	phases "ABCN";
	name "oh_195";
//	bustype "SWING";
	voltage_A "2401.7771";
	voltage_B "-1200.8886-2080.000j";
	voltage_C "-1200.8886+2080.000j";
	nominal_voltage "2401.7771";
}
object node:197
{
	phases "ABCN";
	name "oh_197";
	voltage_A "2401.7771";
	voltage_B "-1200.8886-2080.000j";
	voltage_C "-1200.8886+2080.000j";
	nominal_voltage "2401.7771";
}
object node:250
{
	phases "ABCN";
	name "oh_250";
	voltage_A "2401.7771";
	voltage_B "-1200.8886-2080.000j";
	voltage_C "-1200.8886+2080.000j";
	nominal_voltage "2401.7771";
}
object node:251
{
	phases "ABCN";
	name "oh_251";
//	bustype "SWING";
	voltage_A "2401.7771";
	voltage_B "-1200.8886-2080.000j";
	voltage_C "-1200.8886+2080.000j";
	nominal_voltage "2401.7771";
}
object node:300
{
	phases "ABCN";
	name "oh_300";
	voltage_A "2401.7771";
	voltage_B "-1200.8886-2080.000j";
	voltage_C "-1200.8886+2080.000j";
	nominal_voltage "2401.7771";
}
object node:350
{
	phases "ABCN";
	name "oh_350";
	voltage_A "2401.7771";
	voltage_B "-1200.8886-2080.000j";
	voltage_C "-1200.8886+2080.000j";
	nominal_voltage "2401.7771";
}
object node:450
{
	phases "ABCN";
	name "oh_450";
	voltage_A "2401.7771";
	voltage_B "-1200.8886-2080.000j";
	voltage_C "-1200.8886+2080.000j";
	nominal_voltage "2401.7771";
}
object node:451
{
	phases "ABCN";
	name "oh_451";
//	bustype "SWING";
	voltage_A "2401.7771";
	voltage_B "-1200.8886-2080.000j";
	voltage_C "-1200.8886+2080.000j";
	nominal_voltage "2401.7771";
}
object node:610
{
	phases "ABCN";
	name "oh_610";
	voltage_A "480.000+0j";
	voltage_B "-240.000-415.6922j";
	voltage_C "-240.000+415.6922j";
	nominal_voltage "480.000";
}
object node:611
{
	phases "ABCN";
	name "oh_611";
	voltage_A "2401.7771";
	voltage_B "-1200.8886-2080.000j";
	voltage_C "-1200.8886+2080.000j";
	nominal_voltage "2401.7771";
}

//Create load objects
object load:1
{
	name "oh_1";
	phases "ABCN";
	voltage_A "2401.7771";
	voltage_B "-1200.8886-2080.000j";
	voltage_C "-1200.8886+2080.000j";
	constant_power_A "40000+20000j";
	nominal_voltage "2401.7771";
	}
object load:2
{
	name "oh_2";
	phases "BN";
	voltage_A "2401.7771";
	voltage_B "-1200.8886-2080.000j";
	voltage_C "-1200.8886+2080.000j";
	constant_power_B "20000+10000j";
	nominal_voltage "2401.7771";
	}
object load:4
{
	name "oh_4";
	phases "CN";
	voltage_A "2401.7771";
	voltage_B "-1200.8886-2080.000j";
	voltage_C "-1200.8886+2080.000j";
	constant_power_C "40000+20000j";
	nominal_voltage "2401.7771";
}
object load:5
{
	name "oh_5";
	phases "CN";
	voltage_A "2401.7771";
	voltage_B "-1200.8886-2080.000j";
	voltage_C "-1200.8886+2080.000j";
	constant_current_C "-0.55781+9.2933j";
	nominal_voltage "2401.7771";
}
object load:6
{
	name "oh_6";
	phases "CN";
	voltage_A "2401.7771";
	voltage_B "-1200.8886-2080.000j";
	voltage_C "-1200.8886+2080.000j";
	constant_impedance_C "115.3707+57.6853j";
	nominal_voltage "2401.7771";
}
object load:7
{
	name "oh_7";
	phases "ABCN";
	voltage_A "2401.7771";
	voltage_B "-1200.8886-2080.000j";
	voltage_C "-1200.8886+2080.000j";
	constant_power_A "20000+10000j";
	nominal_voltage "2401.7771";
	}
object load:9
{
	name "oh_9";
	phases "AN";
	voltage_A "2401.7771";
	voltage_B "-1200.8886-2080.000j";
	voltage_C "-1200.8886+2080.000j";
	constant_power_A "40000+20000j";
	nominal_voltage "2401.7771";
}
object load:10
{
	name "oh_10";
	phases "AN";
	voltage_A "2401.7771";
	voltage_B "-1200.8886-2080.000j";
	voltage_C "-1200.8886+2080.000j";
	constant_current_A "8.3272-4.1636j";
	nominal_voltage "2401.7771";
}
object load:11
{
	name "oh_11";
	phases "AN";
	voltage_A "2401.7771";
	voltage_B "-1200.8886-2080.000j";
	voltage_C "-1200.8886+2080.000j";
	constant_impedance_A "115.3707+57.6853j";
	nominal_voltage "2401.7771";
}
object load:12
{
	name "oh_12";
	phases "BN";
	voltage_A "2401.7771";
	voltage_B "-1200.8886-2080.000j";
	voltage_C "-1200.8886+2080.000j";
	constant_power_B "20000+10000j";
	nominal_voltage "2401.7771";
}
object load:16
{
	name "oh_16";
	phases "CN";
	voltage_A "2401.7771";
	voltage_B "-1200.8886-2080.000j";
	voltage_C "-1200.8886+2080.000j";
	constant_power_C "40000+20000j";
	nominal_voltage "2401.7771";
}
object load:17
{
	name "oh_17";
	phases "CN";
	voltage_A "2401.7771";
	voltage_B "-1200.8886-2080.000j";
	voltage_C "-1200.8886+2080.000j";
	constant_power_C "20000+10000j";
	nominal_voltage "2401.7771";
}
object load:19
{
	name "oh_19";
	phases "AN";
	voltage_A "2401.7771";
	voltage_B "-1200.8886-2080.000j";
	voltage_C "-1200.8886+2080.000j";
	constant_power_A "40000+20000j";
	nominal_voltage "2401.7771";
}
object load:20
{
	name "oh_20";
	phases "AN";
	voltage_A "2401.7771";
	voltage_B "-1200.8886-2080.000j";
	voltage_C "-1200.8886+2080.000j";
	constant_current_A "16.6543-8.3272j";
	nominal_voltage "2401.7771";
}
object load:22
{
	name "oh_22";
	phases "BN";
	voltage_A "2401.7771";
	voltage_B "-1200.8886-2080.000j";
	voltage_C "-1200.8886+2080.000j";
	constant_impedance_B "115.3707+57.6853j";
	nominal_voltage "2401.7771";
}
object load:24
{
	name "oh_24";
	phases "CN";
	voltage_A "2401.7771";
	voltage_B "-1200.8886-2080.000j";
	voltage_C "-1200.8886+2080.000j";
	constant_power_C "40000+20000j";
	nominal_voltage "2401.7771";
}
object load:28
{
	name "oh_28";
	phases "ABCN";
	voltage_A "2401.7771";
	voltage_B "-1200.8886-2080.000j";
	voltage_C "-1200.8886+2080.000j";
	constant_current_A "16.6543-8.3272j";
	nominal_voltage "2401.7771";
}
object load:29
{
	name "oh_29";
	phases "ABCN";
	voltage_A "2401.7771";
	voltage_B "-1200.8886-2080.000j";
	voltage_C "-1200.8886+2080.000j";
	constant_impedance_A "115.3707+57.6853j";
	nominal_voltage "2401.7771";
}
object load:30
{
	name "oh_30";
	phases "ABCN";
	voltage_A "2401.7771";
	voltage_B "-1200.8886-2080.000j";
	voltage_C "-1200.8886+2080.000j";
	constant_power_C "40000+20000j";
	nominal_voltage "2401.7771";
}
object load:31
{
	name "oh_31";
	phases "CN";
	voltage_A "2401.7771";
	voltage_B "-1200.8886-2080.000j";
	voltage_C "-1200.8886+2080.000j";
	constant_power_C "20000+10000j";
	nominal_voltage "2401.7771";
}
object load:32
{
	name "oh_32";
	phases "CN";
	voltage_A "2401.7771";
	voltage_B "-1200.8886-2080.000j";
	voltage_C "-1200.8886+2080.000j";
	constant_power_C "20000+10000j";
	nominal_voltage "2401.7771";
}
object load:33
{
	name "oh_33";
	phases "AN";
	voltage_A "2401.7771";
	voltage_B "-1200.8886-2080.000j";
	voltage_C "-1200.8886+2080.000j";
	constant_current_A "16.6543-8.3272j";
	nominal_voltage "2401.7771";
}
object load:34
{
	name "oh_34";
	phases "CN";
	voltage_A "2401.7771";
	voltage_B "-1200.8886-2080.000j";
	voltage_C "-1200.8886+2080.000j";
	constant_impedance_C "115.3707+57.6853j";
	nominal_voltage "2401.7771";
}
object load:35
{
	name "oh_35";
	phases "ABCD";
	voltage_A "2401.7771";
	voltage_B "-1200.8886-2080.000j";
	voltage_C "-1200.8886+2080.000j";
	constant_power_A "40000+20000j";
	nominal_voltage "2401.7771";
}
object load:37
{
	name "oh_37";
	phases "AN";
	voltage_A "2401.7771";
	voltage_B "-1200.8886-2080.000j";
	voltage_C "-1200.8886+2080.000j";
	constant_impedance_A "115.3707+57.6853j";
	nominal_voltage "2401.7771";
}
object load:38
{
	name "oh_38";
	phases "BN";
	voltage_A "2401.7771";
	voltage_B "-1200.8886-2080.000j";
	voltage_C "-1200.8886+2080.000j";
	constant_current_B "-7.7694-5.1297j";
	nominal_voltage "2401.7771";
}
object load:39
{
	name "oh_39";
	phases "BN";
	voltage_A "2401.7771";
	voltage_B "-1200.8886-2080.000j";
	voltage_C "-1200.8886+2080.000j";
	constant_power_B "20000+10000j";
	nominal_voltage "2401.7771";
}
object load:41
{
	name "oh_41";
	phases "CN";
	voltage_A "2401.7771";
	voltage_B "-1200.8886-2080.000j";
	voltage_C "-1200.8886+2080.000j";
	constant_power_C "20000+10000j";
	nominal_voltage "2401.7771";
}
object load:42
{
	name "oh_42";
	phases "ABCN";
	voltage_A "2401.7771";
	voltage_B "-1200.8886-2080.000j";
	voltage_C "-1200.8886+2080.000j";
	constant_power_A "20000+10000j";
	nominal_voltage "2401.7771";
}
object load:43
{
	name "oh_43";
	phases "BN";
	voltage_A "2401.7771";
	voltage_B "-1200.8886-2080.000j";
	voltage_C "-1200.8886+2080.000j";
	constant_impedance_B "115.3707+57.6853j";
	nominal_voltage "2401.7771";
}
object load:45
{
	name "oh_45";
	phases "AN";
	voltage_A "2401.7771";
	voltage_B "-1200.8886-2080.000j";
	voltage_C "-1200.8886+2080.000j";
	constant_current_A "8.3272-4.1636j";
	nominal_voltage "2401.7771";
}
object load:46
{
	name "oh_46";
	phases "AN";
	voltage_A "2401.7771";
	voltage_B "-1200.8886-2080.000j";
	voltage_C "-1200.8886+2080.000j";
	constant_power_A "20000+10000j";
	nominal_voltage "2401.7771";
}
object load:47
{
	name "oh_47";
	phases "ABCN";
	voltage_A "2401.7771";
	voltage_B "-1200.8886-2080.000j";
	voltage_C "-1200.8886+2080.000j";
	constant_current_A "14.5725-10.409j";
	constant_current_B "-16.3007-7.4157j";
	constant_current_C "1.7282+17.8247j";
	nominal_voltage "2401.7771";
}
object load:48
{
	name "oh_48";
	phases "ABCN";
	voltage_A "2401.7771";
	voltage_B "-1200.8886-2080.000j";
	voltage_C "-1200.8886+2080.000j";
	constant_impedance_A "54.5672+38.9766j";
	constant_impedance_B "54.5672+38.9766j";
	constant_impedance_C "54.5672+38.9766j";
	nominal_voltage "2401.7771";
}
object load:49
{
	name "oh_49";
	phases "ABCN";
	voltage_A "2401.7771";
	voltage_B "-1200.8886-2080.000j";
	voltage_C "-1200.8886+2080.000j";
	constant_power_A "35000+25000j";
	constant_power_B "70000+50000j";
	constant_power_C "35000+25000j";
	nominal_voltage "2401.7771";
}
object load:50
{
	name "oh_50";
	phases "ABCN";
	voltage_A "2401.7771";
	voltage_B "-1200.8886-2080.000j";
	voltage_C "-1200.8886+2080.000j";
	constant_power_C "40000+20000j";
	nominal_voltage "2401.7771";
}
object load:51
{
	name "oh_51";
	phases "ABCN";
	voltage_A "2401.7771";
	voltage_B "-1200.8886-2080.000j";
	voltage_C "-1200.8886+2080.000j";
	constant_power_A "20000+10000j";
	nominal_voltage "2401.7771";
}
object load:52
{
	name "oh_52";
	phases "ABCN";
	voltage_A "2401.7771";
	voltage_B "-1200.8886-2080.000j";
	voltage_C "-1200.8886+2080.000j";
	constant_power_A "40000+20000j";
	nominal_voltage "2401.7771";
}
object load:53
{
	name "oh_53";
	phases "ABCN";
	voltage_A "2401.7771";
	voltage_B "-1200.8886-2080.000j";
	voltage_C "-1200.8886+2080.000j";
	constant_power_A "40000+20000j";
	nominal_voltage "2401.7771";
}
object load:55
{
	name "oh_55";
	phases "ABCN";
	voltage_A "2401.7771";
	voltage_B "-1200.8886-2080.000j";
	voltage_C "-1200.8886+2080.000j";
	constant_impedance_A "230.7413+115.3707j";
	nominal_voltage "2401.7771";
}
object load:56
{
	name "oh_56";
	phases "ABCN";
	voltage_A "2401.7771";
	voltage_B "-1200.8886-2080.000j";
	voltage_C "-1200.8886+2080.000j";
	constant_power_B "20000+10000j";
	nominal_voltage "2401.7771";
}
object load:58
{
	name "oh_58";
	phases "BN";
	voltage_A "2401.7771";
	voltage_B "-1200.8886-2080.000j";
	voltage_C "-1200.8886+2080.000j";
	constant_current_B "-7.7694-5.1297j";
	nominal_voltage "2401.7771";
}
object load:59
{
	name "oh_59";
	phases "BN";
	voltage_A "2401.7771";
	voltage_B "-1200.8886-2080.000j";
	voltage_C "-1200.8886+2080.000j";
	constant_power_B "20000+10000j";
	nominal_voltage "2401.7771";
}
object load:60
{
	name "oh_60";
	phases "ABCN";
	voltage_A "2401.7771";
	voltage_B "-1200.8886-2080.000j";
	voltage_C "-1200.8886+2080.000j";
	constant_power_A "20000+10000j";
	nominal_voltage "2401.7771";
}
object load:62
{
	name "oh_62";
	phases "ABC";
	voltage_A "2401.7771";
	voltage_B "-1200.8886-2080.000j";
	voltage_C "-1200.8886+2080.000j";
	constant_impedance_C "115.3707+57.6853j";
	nominal_voltage "2401.7771";
}
object load:63
{
	name "oh_63";
	phases "ABC";
	voltage_A "2401.7771";
	voltage_B "-1200.8886-2080.000j";
	voltage_C "-1200.8886+2080.000j";
	constant_power_A "40000+20000j";
	nominal_voltage "2401.7771";
}
object load:64
{
	name "oh_64";
	phases "ABC";
	voltage_A "2401.7771";
	voltage_B "-1200.8886-2080.000j";
	voltage_C "-1200.8886+2080.000j";
	constant_current_B "-28.2336-19.757j";
	nominal_voltage "2401.7771";
}
object load:65
{
	name "oh_65";
	phases "ABCD";
	voltage_A "2401.7771";
	voltage_B "-1200.8886-2080.000j";
	voltage_C "-1200.8886+2080.000j";
	constant_impedance_A "327.4032+233.8595j";
	constant_impedance_B "327.4032+233.8595j";
	constant_impedance_C "163.7016+116.9297j";
	nominal_voltage "2401.7771";
}
object load:66
{
	name "oh_66";
	phases "ABC";
	voltage_A "2401.7771";
	voltage_B "-1200.8886-2080.000j";
	voltage_C "-1200.8886+2080.000j";
	constant_power_C "75000+35000j";
	nominal_voltage "2401.7771";
}
object load:68
{
	name "oh_68";
	phases "AN";
	voltage_A "2401.7771";
	voltage_B "-1200.8886-2080.000j";
	voltage_C "-1200.8886+2080.000j";
	constant_power_A "20000+10000j";
	nominal_voltage "2401.7771";
}
object load:69
{
	name "oh_69";
	phases "AN";
	voltage_A "2401.7771";
	voltage_B "-1200.8886-2080.000j";
	voltage_C "-1200.8886+2080.000j";
	constant_power_A "40000+20000j";
	nominal_voltage "2401.7771";
}
object load:70
{
	name "oh_70";
	phases "AN";
	voltage_A "2401.7771";
	voltage_B "-1200.8886-2080.000j";
	voltage_C "-1200.8886+2080.000j";
	constant_power_A "20000+10000j";
	nominal_voltage "2401.7771";
}
object load:71
{
	name "oh_71";
	phases "AN";
	voltage_A "2401.7771";
	voltage_B "-1200.8886-2080.000j";
	voltage_C "-1200.8886+2080.000j";
	constant_power_A "40000+20000j";
	nominal_voltage "2401.7771";
}
object load:73
{
	name "oh_73";
	phases "CN";
	voltage_A "2401.7771";
	voltage_B "-1200.8886-2080.000j";
	voltage_C "-1200.8886+2080.000j";
	constant_power_C "40000+20000j";
	nominal_voltage "2401.7771";
}
object load:74
{
	name "oh_74";
	phases "CN";
	voltage_A "2401.7771";
	voltage_B "-1200.8886-2080.000j";
	voltage_C "-1200.8886+2080.000j";
	constant_impedance_C "115.3707+57.6853j";
	nominal_voltage "2401.7771";
}
object load:75
{
	name "oh_75";
	phases "CN";
	voltage_A "2401.7771";
	voltage_B "-1200.8886-2080.000j";
	voltage_C "-1200.8886+2080.000j";
	constant_power_C "40000+20000j";
	nominal_voltage "2401.7771";
}
object load:76
{
	name "oh_76";
	phases "ABCD";
	voltage_A "2401.7771";
	voltage_B "-1200.8886-2080.000j";
	voltage_C "-1200.8886+2080.000j";
	constant_current_A "31.4742-4.0341j";
	constant_current_B "-12.0192-16.8269j";
	constant_current_C "-8.5629+18.8224j";
	nominal_voltage "2401.7771";
}
object load:77
{
	name "oh_77";
	phases "ABCN";
	voltage_A "2401.7771";
	voltage_B "-1200.8886-2080.000j";
	voltage_C "-1200.8886+2080.000j";
	constant_power_B "40000+20000j";
	nominal_voltage "2401.7771";
}
object load:79
{
	name "oh_79";
	phases "ABCN";
	voltage_A "2401.7771";
	voltage_B "-1200.8886-2080.000j";
	voltage_C "-1200.8886+2080.000j";
	constant_impedance_A "115.3707+57.6853j";
	nominal_voltage "2401.7771";
}
object load:80
{
	name "oh_80";
	phases "ABCN";
	voltage_A "2401.7771";
	voltage_B "-1200.8886-2080.000j";
	voltage_C "-1200.8886+2080.000j";
	constant_power_B "40000+20000j";
	nominal_voltage "2401.7771";
}
object load:82
{
	name "oh_82";
	phases "ABCN";
	voltage_A "2401.7771";
	voltage_B "-1200.8886-2080.000j";
	voltage_C "-1200.8886+2080.000j";
	constant_power_A "40000+20000j";
	nominal_voltage "2401.7771";
}
object load:83
{
	name "oh_83";
	phases "ABCN";
	voltage_A "2401.7771";
	voltage_B "-1200.8886-2080.000j";
	voltage_C "-1200.8886+2080.000j";
	constant_power_C "20000+10000j";
	constant_impedance_A "0.00-28.8427j";          //Shunt Capacitors
	constant_impedance_B "0.00-28.8427j";
	constant_impedance_C "0.00-28.8427j";
	nominal_voltage "2401.7771";
}
object load:84
{
	name "oh_84";
	phases "CN";
	voltage_A "2401.7771";
	voltage_B "-1200.8886-2080.000j";
	voltage_C "-1200.8886+2080.000j";
	constant_power_C "20000+10000j";
	nominal_voltage "2401.7771";
}
object load:85
{
	name "oh_85";
	phases "CN";
	voltage_A "2401.7771";
	voltage_B "-1200.8886-2080.000j";
	voltage_C "-1200.8886+2080.000j";
	constant_power_C "40000+20000j";
	nominal_voltage "2401.7771";
}
object load:86
{
	name "oh_86";
	phases "ABCN";
	voltage_A "2401.7771";
	voltage_B "-1200.8886-2080.000j";
	voltage_C "-1200.8886+2080.000j";
	constant_power_B "20000+10000j";
	nominal_voltage "2401.7771";
}
object load:87
{
	name "oh_87";
	phases "ABCN";
	voltage_A "2401.7771";
	voltage_B "-1200.8886-2080.000j";
	voltage_C "-1200.8886+2080.000j";
	constant_power_B "40000+20000j";
	nominal_voltage "2401.7771";
}
object load:88
{
	name "oh_88";
	phases "AN";
	voltage_A "2401.7771";
	voltage_B "-1200.8886-2080.000j";
	voltage_C "-1200.8886+2080.000j";
	constant_power_A "40000+20000j";
	constant_impedance_A "0.00-115.7067j";         //Shunt Capacitor
	nominal_voltage "2401.7771";
}
object load:90
{
	name "oh_90";
	phases "BN";
	voltage_A "2401.7771";
	voltage_B "-1200.8886-2080.000j";
	voltage_C "-1200.8886+2080.000j";
	constant_current_B "-15.5387-10.2595j";
	constant_impedance_B "0.00-115.7067j";         //Shunt Capacitor
	nominal_voltage "2401.7771";
}
object load:92
{
	name "oh_92";
	phases "CN";
	voltage_A "2401.7771";
	voltage_B "-1200.8886-2080.000j";
	voltage_C "-1200.8886+2080.000j";
	constant_power_C "40000+20000j";
	constant_impedance_C "0.00-115.7067j";         //Shunt Capacitor
	nominal_voltage "2401.7771";
}
object load:94
{
	name "oh_94";
	phases "AN";
	voltage_A "2401.7771";
	voltage_B "-1200.8886-2080.000j";
	voltage_C "-1200.8886+2080.000j";
	constant_power_A "40000+20000j";
	nominal_voltage "2401.7771";
}
object load:95
{
	name "oh_95";
	phases "ABCN";
	voltage_A "2401.7771";
	voltage_B "-1200.8886-2080.000j";
	voltage_C "-1200.8886+2080.000j";
	constant_power_B "20000+10000j";
	nominal_voltage "2401.7771";
}
object load:96
{
	name "oh_96";
	phases "BN";
	voltage_A "2401.7771";
	voltage_B "-1200.8886-2080.000j";
	voltage_C "-1200.8886+2080.000j";
	constant_power_B "20000+10000j";
	nominal_voltage "2401.7771";
}
object load:98
{
	name "oh_98";
	phases "ABCN";
	voltage_A "2401.7771";
	voltage_B "-1200.8886-2080.000j";
	voltage_C "-1200.8886+2080.000j";
	constant_power_A "40000+20000j";
	nominal_voltage "2401.7771";
}
object load:99
{
	name "oh_99";
	phases "ABCN";
	voltage_A "2401.7771";
	voltage_B "-1200.8886-2080.000j";
	voltage_C "-1200.8886+2080.000j";
	constant_power_B "40000+20000j";
	nominal_voltage "2401.7771";
}
object load:100
{
	name "oh_100";
	phases "ABCN";
	voltage_A "2401.7771";
	voltage_B "-1200.8886-2080.000j";
	voltage_C "-1200.8886+2080.000j";
	constant_impedance_C "115.3707+57.6853j";
	nominal_voltage "2401.7771";
}
object load:102
{
	name "oh_102";
	phases "CN";
	voltage_A "2401.7771";
	voltage_B "-1200.8886-2080.000j";
	voltage_C "-1200.8886+2080.000j";
	constant_power_C "20000+10000j";
	nominal_voltage "2401.7771";
}
object load:103
{
	name "oh_103";
	phases "CN";
	voltage_A "2401.7771";
	voltage_B "-1200.8886-2080.000j";
	voltage_C "-1200.8886+2080.000j";
	constant_power_C "40000+20000j";
	nominal_voltage "2401.7771";
}
object load:104
{
	name "oh_104";
	phases "CN";
	voltage_A "2401.7771";
	voltage_B "-1200.8886-2080.000j";
	voltage_C "-1200.8886+2080.000j";
	constant_power_C "40000+20000j";
	nominal_voltage "2401.7771";
}
object load:106
{
	name "oh_106";
	phases "BN";
	voltage_A "2401.7771";
	voltage_B "-1200.8886-2080.000j";
	voltage_C "-1200.8886+2080.000j";
	constant_power_B "40000+20000j";
	nominal_voltage "2401.7771";
}
object load:107
{
	name "oh_107";
	phases "BN";
	voltage_A "2401.7771";
	voltage_B "-1200.8886-2080.000j";
	voltage_C "-1200.8886+2080.000j";
	constant_power_B "40000+20000j";
	nominal_voltage "2401.7771";
}
object load:109
{
	name "oh_109";
	phases "AN";
	voltage_A "2401.7771";
	voltage_B "-1200.8886-2080.000j";
	voltage_C "-1200.8886+2080.000j";
	constant_power_A "40000+20000j";
	nominal_voltage "2401.7771";
}
object load:111
{
	name "oh_111";
	phases "AN";
	voltage_A "2401.7771";
	voltage_B "-1200.8886-2080.000j";
	voltage_C "-1200.8886+2080.000j";
	constant_power_A "20000+10000j";
	nominal_voltage "2401.7771";
}
object load:112
{
	name "oh_112";
	phases "AN";
	voltage_A "2401.7771";
	voltage_B "-1200.8886-2080.000j";
	voltage_C "-1200.8886+2080.000j";
	constant_current_A "8.3272-4.1636j";
	nominal_voltage "2401.7771";
}
object load:113
{
	name "oh_113";
	phases "AN";
	voltage_A "2401.7771";
	voltage_B "-1200.8886-2080.000j";
	voltage_C "-1200.8886+2080.000j";
	constant_impedance_A "115.3707+57.6853j";
	nominal_voltage "2401.7771";
}
object load:114
{
	name "oh_114";
	phases "AN";
	voltage_A "2401.7771";
	voltage_B "-1200.8886-2080.000j";
	voltage_C "-1200.8886+2080.000j";
	constant_power_A "20000+10000j";
	nominal_voltage "2401.7771";
}

// Switches
object switch:13152
{
	phases "ABCN";
	name "oh_13-152";
	from "node:13";
	to "node:152";
	status "CLOSED";
}
object switch:18135
{
	phases "ABCN";
	name "oh_18-135";
	from "node:18";
	to "node:135";
	status "CLOSED";
}
object switch:60160
{
	phases "ABCN";
	name "oh_60-160";
	from "load:60";
	to "node:160";
	status "CLOSED";
}
object switch:61611
{
	phases "ABCN";
	name "oh_61-611";
	from "node:61";
	to "node:611";
	status "CLOSED";
}
object switch:97197
{
	phases "ABCN";
	name "oh_97-197";
	from "node:97";
	to "node:197";
	status "CLOSED";
}
object switch:1491149
{
	phases "ABCN";
	name "oh_1491-149";
	from "node:1491";
	to "node:149";
	status "CLOSED";
}
object switch:250251
{
	phases "ABCN";
	name "oh_250-251";
	from "node:250";
	to "node:251";
	status "OPEN";
}
object switch:450451
{
	phases "ABCN";
	name "oh_450-451";
	from "node:450";
	to "node:451";
	status "OPEN";
}
object switch:5494
{
	phases "AN";
	name "oh_54-94";
	from "node:54";
	to "load:94";
	status "OPEN";
}
object switch:151300
{
	phases "ABCN";
	name "oh_151-300";
	from "node:151";
	to "node:300";
	status "OPEN";
}
object switch:300350
{
	phases "ABCN";
	name "oh_300-350";
	from "node:300";
	to "node:350";
	status "OPEN";
}
object switch:95195
{
	phases "ABCN";
	name "oh_95-195";
	from "load:95";
	to "node:195";
	status "OPEN";
}

// Transformer
object transformer_configuration:400
{
	connect_type "DELTA_DELTA";
		install_type "PADMOUNT";
		power_rating "150";
		primary_voltage "4160";
		secondary_voltage "480";
		resistance "0.0127";
		reactance "0.0272";
}
object transformer:611610
{
		phases "ABCN";
		name "oh_611-610";
		from "node:611";
		to "node:610";
		configuration "transformer_configuration:400";
}

// Regulators
object regulator_configuration:1501490
{
	connect_type 1;
	band_center "120.000";
	band_width "2.0";
	time_delay "30.0";
	raise_taps "16";
	lower_taps "16";
	current_transducer_ratio "700";
	power_transducer_ratio "20";
	compensator_r_setting_A "3.0";
	compensator_x_setting_A "7.5";
	compensator_r_setting_B "3.0";
	compensator_x_setting_B "7.5";
	compensator_r_setting_C "3.0";
	compensator_x_setting_C "7.5";
	CT_phase "ABC";
	PT_phase "ABC";
	regulation "0.10";
	Control "MANUAL";
	Type A;
	tap_pos_A 7;
	tap_pos_B 7;
	tap_pos_C 7;
}
object regulator:1501491
{
	 phases "ABC";
	 from "node:150";
	 to "node:1491";
	 configuration "regulator_configuration:1501490";
}
object regulator_configuration:2526010
{
	connect_type 1;
	band_center "120.000";
	band_width "1.0";
	time_delay "30.0";
	raise_taps "16";
	lower_taps "16";
	current_transducer_ratio "50";
	power_transducer_ratio "20";
	compensator_r_setting_A "0.4";
	compensator_x_setting_A "0.4";
	compensator_r_setting_C "0.4";
	compensator_x_setting_C "0.4";
	CT_phase "AC";
	PT_phase "AC";
	regulation "0.10";
	Control "MANUAL";
	Type A;
	tap_pos_A 0;
	tap_pos_C "-1";
}
object regulator:252601
{
	 phases "AC";
	 from "node:25";
	 to "node:2601";
	 configuration "regulator_configuration:2526010";
}
object regulator_configuration:914010
{
	connect_type 1;
	band_center "120.000";
	band_width "2.0";
	time_delay "30.0";
	raise_taps "16";
	lower_taps "16";
	current_transducer_ratio "50";
	power_transducer_ratio "20";
	compensator_r_setting_A "0.4";
	compensator_x_setting_A "0.4";
	CT_phase "A";
	PT_phase "A";
	regulation "0.10";
	Control "MANUAL";
	Type A;
	tap_pos_A "-1";
}
object regulator:91401
{
	 phases "A";
	 from "load:9";
	 to "node:1401";
	 configuration "regulator_configuration:914010";
}
object regulator_configuration:16067010
{
	connect_type 1;
	band_center "124.000";
	band_width "2.0";
	time_delay "30.0";
	raise_taps "16";
	lower_taps "16";
	current_transducer_ratio "300";
	power_transducer_ratio "20";
	compensator_r_setting_A "0.6";
	compensator_x_setting_A "1.3";
	compensator_r_setting_B "1.4";
	compensator_x_setting_B "2.6";
	compensator_r_setting_C "0.2";
	compensator_x_setting_C "1.4";
	CT_phase "ABC";
	PT_phase "ABC";
	regulation "0.10";
	Control "MANUAL";
	Type A;
	tap_pos_A 8;
	tap_pos_B 1;
	tap_pos_C 5;
}
object regulator:1606701
{
	 phases "ABC";
	 from "node:160";
	 to "node:6701";
	 configuration "regulator_configuration:16067010";
}
